***inverter netlist***

.subckt inv Vin Vout VDD! GND!
**********************
* write your design here ~*
MpMos Vout Vin VDD! VDD! W=1u L=0.18u
MnMos Vout Vin GND! GND! W=0.5u L=0.18u
**********************
.ends
